/*--------------------------------*- C++ -*----------------------------------*\
| =========                 |                                                 |
| \\      /  F ield         | OpenFOAM: The Open Source CFD Toolbox           |
|  \\    /   O peration     | Version:  v2306                                 |
|   \\  /    A nd           | Website:  www.openfoam.com                      |
|    \\/     M anipulation  |                                                 |
\*---------------------------------------------------------------------------*/
FoamFile
{
    version     2.0;
    format      ascii;
    class       dictionary;
    object      createPatchDict;
}
// * * * * * * * * * * * * * * * * * * * * * * * * * * * * * * * * * * * * * //

// Worked WELL
// runApplication autoPatch 35 -overwrite

pointSync       false;

// Patches to create.
patches
(
   {
   	name inlet;
   	
   	patchInfo { type patch; }
   	
   	constructFrom patches;

   	patches ("auto1");
   }		

   {
   	name outlet;
   	
   	patchInfo { type patch; }
   	
   	constructFrom patches;

   	patches ("auto0");
   }

   {
   	name Wall;
   	
   	patchInfo { type wall; }
   	
   	constructFrom patches;

   	patches
   	(
   	 	/*"auto1"*/	"auto2"		"auto3" 	"auto4" 	"auto5" 	"auto6" 	"auto7" 	"auto8" 	"auto9" 	"auto10" 	
   	 	"auto11"	"auto12"	 "auto13" 	"auto14" 	"auto15" 	"auto16" 	"auto17" 	"auto18" 	"auto19" 	"auto20"
   	 	"auto21"	"auto22"	 "auto23" 	"auto24" 	"auto25" 	"auto26" 	"auto27" 	"auto28" 	"auto29" 	"auto30"
   	 
   	);

   	//patches ("auto2 | auto3 | auto4 | auto5 | auto6 | auto7 | auto8 | auto10 |  auto11 |  auto12 |  auto13 ");   	
   }	

);

// ************************************************************************* //
