/*--------------------------------*- C++ -*----------------------------------*\
| =========                 |                                                 |
| \\      /  F ield         | OpenFOAM: The Open Source CFD Toolbox           |
|  \\    /   O peration     | Version:  v2306                                 |
|   \\  /    A nd           | Website:  www.openfoam.com                      |
|    \\/     M anipulation  |                                                 |
\*---------------------------------------------------------------------------*/
FoamFile
{
    version     2.0;
    format      ascii;
    class       dictionary;
    object      turbulenceProperties;
}
// * * * * * * * * * * * * * * * * * * * * * * * * * * * * * * * * * * * * * //

simulationType      laminar;//RAS;
/*
RAS
{
    RASModel        kOmegaSST;	//kOmega;//realizableKE;//SpalartAllmaras;//kEpsilon;

    turbulence      on;

    printCoeffs     on;
    
    kOmegaSSTCoeffs
    {
        betaStar        0.09;
    	alphaK1         0.85;
    	alphaK2         1;
    }    
}

/*
simulationType  RAS;

RAS
{
    RASModel        kEpsilon;

    turbulence      on;

    printCoeffs     on;
    
    kEpsilonCoeffs
    {
        Cmu         0.09;
        C1          1.44;
        C2          1.92;
        sigmaEps    1.44; //Original value:1.44//1.11
        // See:
        // D.M. Hargreaves and N.G. Wright
        // "On the use of the k-Epsilon model in commercial CFD software
        // to model the neutral atmospheric boundary layer",
        // J. of wind engineering and industrial aerodymanics,
        // 95(2007) 355-269
    }    
}
*/
// ************************************************************************* //
