/*--------------------------------*- C++ -*----------------------------------*\
| =========                 |                                                 |
| \\      /  F ield         | OpenFOAM: The Open Source CFD Toolbox           |
|  \\    /   O peration     | Version:  v2156                                 |
|   \\  /    A nd           | Website:  www.openfoam.com                      |
|    \\/     M anipulation  |                                                 |
\*---------------------------------------------------------------------------*/
FoamFile
{
    version     2.0;
    format      ascii;
    class       dictionary;
    object      blockMeshDict;
}
// * * * * * * * * * * * * * * * * * * * * * * * * * * * * * * * * * * * * * //

scale   1;  //0.001;

vertices
(    
/*
(-20 0 0) //0
(0 0 20) //1
(0 1154 20) //2
(-20 1154 0) //3
(0 0 -20) //4
(20 0 0) //5
(20 1154 0) //6
(0 1154 -20)  //7
*/

(-18.385 0 -18.385) //0
(18.385 0 -18.385) //1
(18.385 1154 -18.385) //2
(-18.385 1154 -18.385) //3
(-18.385 0 18.385) //4
(18.385 0 18.385) //5
(18.385 1154 18.385) //6
(-18.385 1154 18.385)  //7

/*
(-18.9 0 -18.9) // 0
(18.9 0 -18.9) // 1
(18.9 500 -18.9) // 2
(-18.9 500 -18.9)
(-18.9 0 18.9)
(18.9 0 18.9)
(18.9 500 18.9)
(-18.9 500 18.9)
 */
);

blocks
(	
        hex (0 1 2 3 4 5 6 7) (80 1154 80) simpleGrading (1 1 1) 		// dx = dy = dz = 1
 
);

edges
(
arc 5 1 (26 0 0)
arc 1 0 (0 0 -26)
arc 0 4 (-26 0 0)
arc 4 5 (0 0 26)
arc 6 2 (26 1154 0)
arc 2 3 (0 1154 -26)
arc 3 7 (-26 1154 0)
arc 7 6 (0 1154 26)

/*
arc 5 1 (21.2132 0 0)
arc 1 0 (0 0 -21.2132)
arc 0 4 (-21.2132 0 0)
arc 4 5 (0 0 21.2132)
arc 6 2 (21.2132 1154 0)
arc 2 3 (0 1154 -21.2132)
arc 3 7 (-21.2132 1154 0)
arc 7 6 (0 1154 21.2132) //.18.384*/
); 

boundary
(
    top
    {
        type patch;
        faces
        (
            (3 7 6 2)
        );
    }
    bottom
    {
        type patch;
        faces
        (
            (1 5 4 0)
        );
    }
    left
    {
        type wall;
        faces
        (
            (0 4 7 3)
        );
    }
    right
    {
        type wall;
        faces
        (
            (2 6 5 1)
        );
    }
    front
    {
        type wall;
        faces
        (
            (4 5 6 7)
        );
    }
    back
    {
        type wall;
        faces
        (
            (0 3 2 1)
        );
    }
);

mergePatchPairs
(
);


// ************************************************************************* //
