/*--------------------------------*- C++ -*----------------------------------*\
| =========                 |                                                 |
| \\      /  F ield         | OpenFOAM: The Open Source CFD Toolbox           |
|  \\    /   O peration     | Version:  v2212                                 |
|   \\  /    A nd           | Website:  www.openfoam.com                      |
|    \\/     M anipulation  |                                                 |
\*---------------------------------------------------------------------------*/
FoamFile
{
    version     2.0;
    format      ascii;
    class       dictionary;
    object      fvSchemes;
}
// * * * * * * * * * * * * * * * * * * * * * * * * * * * * * * * * * * * * * //

ddtSchemes
{
    default         steadyState;
}

gradSchemes
{
    default         leastSquares;	//Gauss linear;
    grad(U)         cellLimited<Venkatakrishnan> Gauss linear 1; //cellLimited Gauss linear 1;
}

divSchemes
{
    default         none;

    div(phi,U)      Gauss vanLeerV;
    //bounded Gauss linearUpwind grad(U);

    turbulence      Gauss vanLeer;	//bounded Gauss limitedLinear 1;
    div(phi,k)      $turbulence;
    div(phi,R)      $turbulence;
    div(phi,f)      $turbulence;
    div(R) 	    Gauss linear;	//Gauss upwind;   
    //Gauss vanLeer; (ERROR: attempt to read beyond EOF)
    div(phi,epsilon) $turbulence;
    div(f) 	    $turbulence; 	//Gauss upwind;  	 //Gauss linear;    
    div(phi,omega)  $turbulence;
    div((nu*dev2(T(grad(U)))))  Gauss linear;
    div(nonlinearStress) Gauss linear;
    div((nuEff*dev2(T(grad(U))))) Gauss linear;
}

laplacianSchemes
{
    default         Gauss linear corrected;
}

interpolationSchemes
{
    default         linear;
}

snGradSchemes
{
    default         corrected;
}

wallDist
{
    method          meshWave;
}


// ************************************************************************* //
