/*--------------------------------*- C++ -*----------------------------------*\
| =========                 |                                                 |
| \\      /  F ield         | OpenFOAM: The Open Source CFD Toolbox           |
|  \\    /   O peration     | Version:  v2306                                 |
|   \\  /    A nd           | Website:  www.openfoam.com                      |
|    \\/     M anipulation  |                                                 |
\*---------------------------------------------------------------------------*/
FoamFile
{
    version     2.0;
    format      ascii;
    class       dictionary;
    object      snappyHexMeshDict;
}
// * * * * * * * * * * * * * * * * * * * * * * * * * * * * * * * * * * * * * //

// Which of the steps to run
castellatedMesh true;
snap            true;//true;
addLayers       false;// false;


// Geometry. Definition of all surfaces. All surfaces are of class
// searchableSurface.
// Surfaces are used
// - to specify refinement for any mesh cell intersecting it
// - to specify refinement for any mesh cell inside/outside/near
// - to 'snap' the mesh boundary to the surface
geometry
{
	with_spacers.obj
    {
        type closedTriSurfaceMesh;
        name with_spacers;
    }
   /* 
     boundary_left0.stl
    {
        type closedTriSurfaceMesh;
        name left;
    }
    
    
      boundary_back0.stl
    {
        type closedTriSurfaceMesh;
        name back;
    }
    
      boundary_front0.stl
    {
        type closedTriSurfaceMesh;
        name front;
    }
    
      boundary_right0.stl
    {
        type closedTriSurfaceMesh;
        name right;
    }
    */
   /* 
    round
   {
    type            searchableCylinder;
    point1          (0 0 0);
    point2          (0 0.1 0);
    radius          0.008;
   }
   
    box_blockmesh1
    {
    	type searchableBox;
    	min (-0.03175 0 0.0265);
    	max (0.03175 0.1 0.03175); 
    }
    
    box_blockmesh2
    {
    	type searchableBox;
    	min (-0.03175 0 -0.03175);
    	max (0.03175 0.1 -0.0265);  
    }
   
    box_blockmesh3
    {
    	type searchableBox;
    	min (0.0265 0 -0.03175);
    	max (0.03175 0.1 0.03175);  
    } 
    
    box_blockmesh4
    {
    	type searchableBox;
    	min (-0.03175 0 -0.03175);
    	max (-0.0265 0.1 0.03175);  
    }
   */
};

// Settings for the castellatedMesh generation.
castellatedMeshControls
{

    maxLocalCells 100000;
    maxGlobalCells 2000000;
    minRefinementCells 10;
    maxLoadUnbalance 0.10;
    nCellsBetweenLevels 3; // 2
    
    refinementSurfaces
    {
        with_spacers 
        {
           level (1 1);
          //level (2 2);
     //      level (3 3);
//	      level (5 5);            
//	      level (3 4);
     //level (4 4);
//	      level (5 6);
            patchInfo { type wall; }
        }
    }
    
    	refinementRegions
    	{
    	/*round
	{
	   mode inside;		//2 million 
	   levels ((1 1));
	} 
	box_blockmesh1
	{
	   mode inside;		//2 million 
	   levels ((1 1));
	   //((3 3)); //11 million    //((1 1)) // OK	((5 5)) //Not worked (entire model is visible);
	} 
	
	box_blockmesh2
	{
	   mode inside;		//2 million 
	   levels ((1 1));
	} 
    	
    	box_blockmesh3
	{
	   mode inside;		//2 million 
	   levels ((1 1));
	} 
	
	box_blockmesh4
	{
	   mode inside;		//2 million 
	   levels ((1 1));
	}*/
    }
    
    
    //locationInMesh (63 10 63);
   // locationInMesh (1e-5 1e-5 1e-5);
    locationInMesh (1000 68.6514 -33.8146);
    //locationInMesh (0 319.6 -6.426);	//(18.5 500 18.5);    
    allowFreeStandingZoneFaces false;
    //locationsOutsideMesh ((50 1090 55));
    //useLeakClosure true;
    
    features
    (
        {
            file "with_spacers.eMesh";
            level 1;
            //level 6;
        } 
    );


    resolveFeatureAngle 60;
    
}


// Settings for the snapping.
snapControls
{
   
    nSmoothPatch 3;
    
    tolerance 2.0;	//1.0;

    nSolveIter 30;	//10;

    nRelaxIter 5; // 3

        nFeatureSnapIter 5;//10; // 5

        implicitFeatureSnap false;//false;

        explicitFeatureSnap true; //false;

        multiRegionFeatureSnap true;//false;      
}



// Settings for the layer addition.
addLayersControls
{
    
    relativeSizes false;	//true;

    layers
    {
	    cylinder
	    { 
	      nSurfaceLayers 10;
	    }
	    
	    right
	    { 
	      nSurfaceLayers 10;
	    }
	    
	    left
	    { 
	      nSurfaceLayers 10;
	    }
	    
	    front
	    { 
	      nSurfaceLayers 10;
	    }
	    
	    back
	    { 
	      nSurfaceLayers 10;
	    }    
    }

    expansionRatio 1.2;// 1.0;

    finalLayerThickness 0.05;

    minThickness 0.1;//1e-3;	//0.1;

    nGrow 0;

    featureAngle 130;//60;

    slipFeatureAngle 30;

    nRelaxIter 3;

    nSmoothSurfaceNormals 1;

    nSmoothNormals 3;

    nSmoothThickness 10;

    maxFaceThicknessRatio 0.5;

    maxThicknessToMedialRatio 0.3;

    minMedialAxisAngle 90;

    nBufferCellsNoExtrude 0;

    nLayerIter 50;
}



// Generic mesh quality settings. At any undoable phase these determine
// where to undo.
meshQualityControls
{
    #includeEtc "caseDicts/meshQualityDict"

    // Advanced

    //- Number of error distribution iterations
    nSmoothScale 4;
    //- Amount to scale back displacement at error points
    errorReduction 0.75;
}


// Advanced

// Format to use for lines (e.g. leak path)
setFormat ensight;

//debugFlags
//(
//    mesh
//);

// Merge tolerance. Is fraction of overall bounding box of initial mesh.
// Note: the write tolerance needs to be higher than this.
mergeTolerance 1e-6;


// ************************************************************************* //
