/*--------------------------------*- C++ -*----------------------------------*\
| =========                 |                                                 |
| \\      /  F ield         | OpenFOAM: The Open Source CFD Toolbox           |
|  \\    /   O peration     | Version:  v2306                                 |
|   \\  /    A nd           | Website:  www.openfoam.com                      |
|    \\/     M anipulation  |                                                 |
\*---------------------------------------------------------------------------*/
FoamFile
{
    version     2.0;
    format      ascii;
    class       dictionary;
    object      snappyHexMeshDict;
}
// * * * * * * * * * * * * * * * * * * * * * * * * * * * * * * * * * * * * * //

// Which of the steps to run
castellatedMesh true;
snap            true; //true;
addLayers       true; //false;


// Geometry. Definition of all surfaces. All surfaces are of class
// searchableSurface.
// Surfaces are used
// - to specify refinement for any mesh cell intersecting it
// - to specify refinement for any mesh cell inside/outside/near
// - to 'snap' the mesh boundary to the surface
geometry
{
    rod_bundles_3x3.obj
    {
        type closedTriSurfaceMesh;
        name cylinder;
    }
    
     boundary_left0.stl
    {
        type closedTriSurfaceMesh;
        name left;
    }
    
    
      boundary_back0.stl
    {
        type closedTriSurfaceMesh;
        name back;
    }
    
      boundary_front0.stl
    {
        type closedTriSurfaceMesh;
        name front;
    }
    
      boundary_right0.stl
    {
        type closedTriSurfaceMesh;
        name right;
    }
};

// Settings for the castellatedMesh generation.
castellatedMeshControls
{

    maxLocalCells 100000;
    maxGlobalCells 2000000;
    minRefinementCells 10;
    maxLoadUnbalance 0.10;
    nCellsBetweenLevels 3; // 2
    
    refinementSurfaces
    {
        cylinder 
        {
           level (1 1);
            patchInfo { type wall; }
        }
    }
    
    	refinementRegions
    	{
        }
    
  
    locationInMesh (5 500 6);   
    allowFreeStandingZoneFaces false;
    //locationsOutsideMesh ((50 1090 55));
    //useLeakClosure true;
    
    features
    (
        {
            file "rod_bundles_3x3.eMesh";
            level 1;
        } 
    );


    resolveFeatureAngle 60;
    
}


// Settings for the snapping.
snapControls
{
   
    nSmoothPatch 3;
    
    tolerance 2.0;	//1.0;

    nSolveIter 30;	//10;

    nRelaxIter 5; // 3

        nFeatureSnapIter 5;//10; // 5

        implicitFeatureSnap false;//false;

        explicitFeatureSnap true; //false;

        multiRegionFeatureSnap true;//false;      
}



// Settings for the layer addition.
addLayersControls
{
    
    relativeSizes false;	//true;

    layers
    {
	    cylinder
	    { 
	      nSurfaceLayers 1;//10;
	    }
	    
	    right
	    { 
	      nSurfaceLayers 1;
	    }
	    
	    left
	    { 
	      nSurfaceLayers 1;
	    }
	    
	    front
	    { 
	      nSurfaceLayers 1;
	    }
	    
	    back
	    { 
	      nSurfaceLayers 1;
	    }    
    }

    expansionRatio 1.2;// 1.0;

    finalLayerThickness 0.05;

    minThickness 0.1;//1e-3;	//0.1;

    nGrow 0;

    featureAngle 130;//60;

    slipFeatureAngle 30;

    nRelaxIter 3;

    nSmoothSurfaceNormals 1;

    nSmoothNormals 3;

    nSmoothThickness 10;

    maxFaceThicknessRatio 0.5;

    maxThicknessToMedialRatio 0.3;

    minMedialAxisAngle 90;

    nBufferCellsNoExtrude 0;

    nLayerIter 50;
}



// Generic mesh quality settings. At any undoable phase these determine
// where to undo.
meshQualityControls
{
    #includeEtc "caseDicts/meshQualityDict"

    // Advanced

    //- Number of error distribution iterations
    nSmoothScale 4;
    //- Amount to scale back displacement at error points
    errorReduction 0.75;
}


// Advanced

// Format to use for lines (e.g. leak path)
setFormat ensight;

//debugFlags
//(
//    mesh
//);

// Merge tolerance. Is fraction of overall bounding box of initial mesh.
// Note: the write tolerance needs to be higher than this.
mergeTolerance 1e-6;


// ************************************************************************* //
