/*--------------------------------*- C++ -*----------------------------------*\
| =========                 |                                                 |
| \\      /  F ield         | OpenFOAM: The Open Source CFD Toolbox           |
|  \\    /   O peration     | Version:  v2312                                 |
|   \\  /    A nd           | Website:  www.openfoam.com                      |
|    \\/     M anipulation  |                                                 |
\*---------------------------------------------------------------------------*/
FoamFile
{
    version     2.0;
    format      ascii;
    class       dictionary;
    object      blockMeshDict;
}
// * * * * * * * * * * * * * * * * * * * * * * * * * * * * * * * * * * * * * //

scale   1;

vertices
(
    (-3  -2.5  -1)
    ( 3  -2.5  -1)
    ( 3   2.5  -1)
    (-3   2.5  -1)
    (-3  -2.5   1)
    ( 3  -2.5   1)
    ( 3   2.5   1)
    (-3   2.5   1)
);

blocks
(
    hex (0 1 2 3 4 5 6 7) (264 220 88) simpleGrading (1 1 1)
);

edges
(
);

boundary
(
    
    inlet1
    {
        type patch;
        faces
        (
            (0 4 7 3)
        );
    }
    outlet1
    {
        type patch;
        faces
        (
            (2 6 5 1)
        );
    }
    Walls
    {
        type wall;
        faces
        (
            (0 3 2 1)
            (3 7 6 2)
            (1 5 4 0)
            (4 5 6 7)
        );
    }
    
);


// ************************************************************************* //
