/*--------------------------------*- C++ -*----------------------------------*\
| =========                 |                                                 |
| \\      /  F ield         | OpenFOAM: The Open Source CFD Toolbox           |
|  \\    /   O peration     | Version:  v2212                                 |
|   \\  /    A nd           | Website:  www.openfoam.com                      |
|    \\/     M anipulation  |                                                 |
\*---------------------------------------------------------------------------*/
FoamFile
{
    version     2.0;
    format      ascii;
    class       dictionary;
    object      fvSchemes;
}
// * * * * * * * * * * * * * * * * * * * * * * * * * * * * * * * * * * * * * //

ddtSchemes
{
    default         steadyState;
}

gradSchemes
{
    default         leastSquares;	//Gauss linear;
    grad(U)         cellLimited<Venkatakrishnan> Gauss linear 1;	//cellLimited Gauss linear 1;
}

divSchemes
{
    default         none;

    div(phi,U)      Gauss vanLeerV;	
    //bounded Gauss linearUpwindV grad(U);	//bounded Gauss linearUpwind grad(U);

    turbulence      Gauss vanLeer;
    //bounded Gauss upwind;//bounded Gauss limitedLinear 1;
    div(phi,k)      $turbulence;
    //div(phi,epsilon) $turbulence;
    div(phi,omega)  $turbulence;

    //div(nonlinearStress) Gauss linear;
    div((nuEff*dev2(T(grad(U))))) Gauss linear;
}

laplacianSchemes
{
    default         Gauss linear corrected;
}

interpolationSchemes
{
    default         linear;
}

snGradSchemes
{
    default         corrected;
}

wallDist
{
    method          meshWave;
}


// ************************************************************************* //
