/*--------------------------------*- C++ -*----------------------------------*\
| =========                 |                                                 |
| \\      /  F ield         | OpenFOAM: The Open Source CFD Toolbox           |
|  \\    /   O peration     | Version:  v2306                                 |
|   \\  /    A nd           | Website:  www.openfoam.com                      |
|    \\/     M anipulation  |                                                 |
\*---------------------------------------------------------------------------*/
FoamFile
{
    version     2.0;
    format      ascii;
    class       volScalarField;
    object      nut;
}
// * * * * * * * * * * * * * * * * * * * * * * * * * * * * * * * * * * * * * //

dimensions      [0 2 -1 0 0 0 0];

internalField   uniform 0;

boundaryField
{

    top
    {
    	//type            pressureInletOutletVelocity;
        //value           $internalField;
    	//type        fixedValue;
        //value       $internalField;//uniform (0 0 0);
        type        zeroGradient;
    }

    bottom
    {
        type        fixedValue;
        value       uniform 0;
    }

    left
    {
     	type            kqRWallFunction;
        value           uniform 0;
      //type            noSlip;
    }

    right
    {
         type            kqRWallFunction;
        value           uniform 0;
        // type             noSlip;
        //value           uniform (0 0 0);
        
    }

    front
    {
         type            kqRWallFunction;
        value           uniform 0;
        //type         	noSlip;
       // value       uniform (0 0 0);
    }

    back
    {
         type            kqRWallFunction;
        value           uniform 0;
        //type         noSlip;
        //value       uniform (0 0 0);
    }

    cylinder
    {
        type            kqRWallFunction;
        value           uniform 0;
         //type         noSlip;
        //value       uniform (0 0 0);
    }
}
/*
boundaryField
{
    inlet
    {
        type            calculated;
        value           uniform 0;
    }

    outlet
    {
        type            calculated;
        value           uniform 0;
    }

    upperWall
    {
        type            nutkWallFunction;
        value           uniform 0;
    }

    lowerWall
    {
        type            nutkWallFunction;
        value           uniform 0;
    }

    frontAndBack
    {
        type            empty;
    }
}
*/

// ************************************************************************* //
