/*--------------------------------*- C++ -*----------------------------------*\
| =========                 |                                                 |
| \\      /  F ield         | OpenFOAM: The Open Source CFD Toolbox           |
|  \\    /   O peration     | Version:  2306                                  |
|   \\  /    A nd           | Website:  www.openfoam.com                      |
|    \\/     M anipulation  |                                                 |
\*---------------------------------------------------------------------------*/
FoamFile
{
    version     2.0;
    format      ascii;
    arch        "LSB;label=32;scalar=64";
    class       featureEdgeMesh;
    location    "constant/triSurface";
    object      cylinder.eMesh;
}
// * * * * * * * * * * * * * * * * * * * * * * * * * * * * * * * * * * * * * //


// points:

52
(
(0.0025 0 0)
(0.002427 0 -0.000598)
(0.002427 0.1 -0.000598)
(0.0025 0.1 0)
(0.002214 0.1 -0.001162)
(0.002214 0 -0.001162)
(0.001871 0.1 -0.001658)
(0.001871 0 -0.001658)
(0.00142 0.1 -0.002057)
(0.00142 0 -0.002057)
(0.000887 0.1 -0.002338)
(0.000887 0 -0.002338)
(0.000301 0.1 -0.002482)
(0.000301 0 -0.002482)
(-0.000301 0.1 -0.002482)
(-0.000301 0 -0.002482)
(-0.000887 0.1 -0.002338)
(-0.000887 0 -0.002338)
(-0.00142 0.1 -0.002057)
(-0.00142 0 -0.002057)
(-0.001871 0.1 -0.001658)
(-0.001871 0 -0.001658)
(-0.002214 0.1 -0.001162)
(-0.002214 0 -0.001162)
(-0.002427 0 -0.000598)
(-0.002427 0.1 -0.000598)
(-0.0025 0 0)
(-0.0025 0.1 0)
(-0.002427 0.1 0.000598)
(-0.002427 0 0.000598)
(-0.002214 0.1 0.001162)
(-0.002214 0 0.001162)
(-0.001871 0.1 0.001658)
(-0.001871 0 0.001658)
(-0.00142 0.1 0.002057)
(-0.00142 0 0.002057)
(-0.000887 0.1 0.002338)
(-0.000887 0 0.002338)
(-0.000301 0.1 0.002482)
(-0.000301 0 0.002482)
(0.000301 0.1 0.002482)
(0.000301 0 0.002482)
(0.000887 0.1 0.002338)
(0.000887 0 0.002338)
(0.00142 0.1 0.002057)
(0.00142 0 0.002057)
(0.001871 0.1 0.001658)
(0.001871 0 0.001658)
(0.002214 0.1 0.001162)
(0.002214 0 0.001162)
(0.002427 0.1 0.000598)
(0.002427 0 0.000598)
)


// edges:

52
(
(0 1)
(2 3)
(4 2)
(1 5)
(6 4)
(5 7)
(8 6)
(7 9)
(10 8)
(9 11)
(12 10)
(11 13)
(14 12)
(13 15)
(16 14)
(15 17)
(18 16)
(17 19)
(20 18)
(19 21)
(22 20)
(21 23)
(23 24)
(25 22)
(24 26)
(27 25)
(28 27)
(26 29)
(30 28)
(29 31)
(32 30)
(31 33)
(34 32)
(33 35)
(36 34)
(35 37)
(38 36)
(37 39)
(40 38)
(39 41)
(42 40)
(41 43)
(44 42)
(43 45)
(46 44)
(45 47)
(48 46)
(47 49)
(50 48)
(3 50)
(49 51)
(51 0)
)

// * * * * * * * * * * * * * * * * * * * * * * * * * * * * * * * * * * * * * //


// ************************************************************************* //
