/*--------------------------------*- C++ -*----------------------------------*\
| =========                 |                                                 |
| \\      /  F ield         | OpenFOAM: The Open Source CFD Toolbox           |
|  \\    /   O peration     | Version:  v2306                                 |
|   \\  /    A nd           | Website:  www.openfoam.com                      |
|    \\/     M anipulation  |                                                 |
\*---------------------------------------------------------------------------*/
FoamFile
{
    version     2.0;
    format      ascii;
    class       dictionary;
    object      blockMeshDict;
}
// * * * * * * * * * * * * * * * * * * * * * * * * * * * * * * * * * * * * * //

scale   1;

vertices
(
(-5 -5 -10) 
(10 -5 -10) 
(10 5 -10)
(-5 5 -10)
(-5 -5 10)
(10 -5 10)
(10 5 10)
(-5 5 10)
);

blocks
(
    hex (0 1 2 3 4 5 6 7) (30 30 60) simpleGrading (1 1 1)
);

edges
(
);

boundary
(
    top
    {
        type wall;
        faces
        (
            (3 7 6 2)
        );
    }
    bottom
    {
        type wall;
        faces
        (
            (1 5 4 0)
        );
    }
    left
    {
        type patch;
        faces
        (
            (0 4 7 3)
        );
    }
    right
    {
        type patch;
        faces
        (
            (2 6 5 1)
        );
    }
    front
    {
        type wall;
        faces
        (
            (4 5 6 7)
        );
    }
    back
    {
        type wall;
        faces
        (
            (0 3 2 1)
        );
    }
);


// ************************************************************************* //
