/*--------------------------------*- C++ -*----------------------------------*\
| =========                 |                                                 |
| \\      /  F ield         | OpenFOAM: The Open Source CFD Toolbox           |
|  \\    /   O peration     | Version:  2306                                  |
|   \\  /    A nd           | Website:  www.openfoam.com                      |
|    \\/     M anipulation  |                                                 |
\*---------------------------------------------------------------------------*/
FoamFile
{
    version     2.0;
    format      ascii;
    arch        "LSB;label=32;scalar=64";
    class       volScalarField;
    location    "0";
    object      nut;
}
// * * * * * * * * * * * * * * * * * * * * * * * * * * * * * * * * * * * * * //

dimensions      [0 2 -1 0 0 0 0];

internalField   uniform 0;

boundaryField
{
    top
    {
        type            calculated;
        value           uniform 0;
    }
    bottom
    {
        type            calculated;
        value           uniform 0;
    }
    left
    {
        type            nutkWallFunction;
        value           uniform 0;
    }
    right
    {
        type            nutkWallFunction;
        value           uniform 0;
    }
    front
    {
        type            nutkWallFunction;
        value           uniform 0;
    }
    back
    {
        type            nutkWallFunction;
        value           uniform 0;
    }
    cylinder
    {
        type            nutkWallFunction;
        value           uniform 0;
    }
}


// ************************************************************************* //
