/*--------------------------------*- C++ -*----------------------------------*\
| =========                 |                                                 |
| \\      /  F ield         | OpenFOAM: The Open Source CFD Toolbox           |
|  \\    /   O peration     | Version:  2306                                  |
|   \\  /    A nd           | Website:  www.openfoam.com                      |
|    \\/     M anipulation  |                                                 |
\*---------------------------------------------------------------------------*/
FoamFile
{
    version     2.0;
    format      ascii;
    arch        "LSB;label=32;scalar=64";
    class       volSymmTensorField;
    location    "0";
    object      R;
}
// * * * * * * * * * * * * * * * * * * * * * * * * * * * * * * * * * * * * * //

dimensions      [0 2 -2 0 0 0 0];

internalField   uniform (0 0.0025 0 0 0.0025 0);	//(0 0.0025 0 0 0.0025 0.0025);	//0.0025

boundaryField
{
    top
    {
        //type            cyclic;
        type            zeroGradient;
        //type            fixedValue;
        //value           uniform (1e-16 1e-16 1e-16 1e-16 1e-16 1e-16);        
    }
    bottom
    {
        //type            cyclic;
        type            zeroGradient;
        //type            fixedValue;
        //value           uniform (1e-16 1e-16 1e-16 1e-16 1e-16 1e-16);        
    }
    left
    {
        type            fixedValue;
        value           uniform (1e-16 1e-16 1e-16 1e-16 1e-16 1e-16);
    }
    right
    {
        type            fixedValue;
        value           uniform (1e-16 1e-16 1e-16 1e-16 1e-16 1e-16);
    }
    front
    {
        type            fixedValue;
        value           uniform (1e-16 1e-16 1e-16 1e-16 1e-16 1e-16);
    }
    back
    {
        type            fixedValue;
        value           uniform (1e-16 1e-16 1e-16 1e-16 1e-16 1e-16);
    }
    cylinder
    {
        type            zeroGradient;
        //type            fixedValue;
        //value           uniform (1e-16 1e-16 1e-16 1e-16 1e-16 1e-16);
    }
}


// ************************************************************************* //
