/*--------------------------------*- C++ -*----------------------------------*\
| =========                 |                                                 |
| \\      /  F ield         | OpenFOAM: The Open Source CFD Toolbox           |
|  \\    /   O peration     | Version:  2306                                  |
|   \\  /    A nd           | Website:  www.openfoam.com                      |
|    \\/     M anipulation  |                                                 |
\*---------------------------------------------------------------------------*/
FoamFile
{
    version     2.0;
    format      ascii;
    arch        "LSB;label=32;scalar=64";
    class       extendedFeatureEdgeMesh;
    location    "constant/extendedFeatureEdgeMesh";
    object      cylinder.extendedFeatureEdgeMesh;
}
// * * * * * * * * * * * * * * * * * * * * * * * * * * * * * * * * * * * * * //

// points

52
(
(0.0025 0 0)
(0.002427 0 -0.000598)
(0.002427 0.1 -0.000598)
(0.0025 0.1 0)
(0.002214 0.1 -0.001162)
(0.002214 0 -0.001162)
(0.001871 0.1 -0.001658)
(0.001871 0 -0.001658)
(0.00142 0.1 -0.002057)
(0.00142 0 -0.002057)
(0.000887 0.1 -0.002338)
(0.000887 0 -0.002338)
(0.000301 0.1 -0.002482)
(0.000301 0 -0.002482)
(-0.000301 0.1 -0.002482)
(-0.000301 0 -0.002482)
(-0.000887 0.1 -0.002338)
(-0.000887 0 -0.002338)
(-0.00142 0.1 -0.002057)
(-0.00142 0 -0.002057)
(-0.001871 0.1 -0.001658)
(-0.001871 0 -0.001658)
(-0.002214 0.1 -0.001162)
(-0.002214 0 -0.001162)
(-0.002427 0 -0.000598)
(-0.002427 0.1 -0.000598)
(-0.0025 0 0)
(-0.0025 0.1 0)
(-0.002427 0.1 0.000598)
(-0.002427 0 0.000598)
(-0.002214 0.1 0.001162)
(-0.002214 0 0.001162)
(-0.001871 0.1 0.001658)
(-0.001871 0 0.001658)
(-0.00142 0.1 0.002057)
(-0.00142 0 0.002057)
(-0.000887 0.1 0.002338)
(-0.000887 0 0.002338)
(-0.000301 0.1 0.002482)
(-0.000301 0 0.002482)
(0.000301 0.1 0.002482)
(0.000301 0 0.002482)
(0.000887 0.1 0.002338)
(0.000887 0 0.002338)
(0.00142 0.1 0.002057)
(0.00142 0 0.002057)
(0.001871 0.1 0.001658)
(0.001871 0 0.001658)
(0.002214 0.1 0.001162)
(0.002214 0 0.001162)
(0.002427 0.1 0.000598)
(0.002427 0 0.000598)
)

// edges

52
(
(0 1)
(2 3)
(4 2)
(1 5)
(6 4)
(5 7)
(8 6)
(7 9)
(10 8)
(9 11)
(12 10)
(11 13)
(14 12)
(13 15)
(16 14)
(15 17)
(18 16)
(17 19)
(20 18)
(19 21)
(22 20)
(21 23)
(23 24)
(25 22)
(24 26)
(27 25)
(28 27)
(26 29)
(30 28)
(29 31)
(32 30)
(31 33)
(34 32)
(33 35)
(36 34)
(35 37)
(38 36)
(37 39)
(40 38)
(39 41)
(42 40)
(41 43)
(44 42)
(43 45)
(46 44)
(45 47)
(48 46)
(47 49)
(50 48)
(3 50)
(49 51)
(51 0)
)

// concaveStart mixedStart nonFeatureStart
0 0 0
// internalStart flatStart openStart multipleStart
52 52 52 52
// normals

100
(
(0.992631 0 -0.121174)
(0 -1 0)
(0.992631 0 -0.121174)
(0 1 0)
(0.935509 0 -0.353304)
(0 1 0)
(0.935509 0 -0.353304)
(0 -1 0)
(0.822491 0 -0.568779)
(0.822491 0 -0.568779)
(0.66261 0 -0.748965)
(0 1 0)
(0.66261 0 -0.748965)
(-0 -1 0)
(0.466362 0 -0.884594)
(0.466362 0 -0.884594)
(0.238634 0 -0.971109)
(0 1 0)
(0.238634 0 -0.971109)
(-0 -1 0)
(-0 0 -1)
(0 1 0)
(0 0 -1)
(0 -1 0)
(-0.238634 0 -0.971109)
(0 1 0)
(-0.238634 0 -0.971109)
(0 -1 0)
(-0.466362 0 -0.884594)
(0 1 0)
(-0.466362 0 -0.884594)
(0 -1 0)
(-0.66261 0 -0.748965)
(0 1 0)
(-0.66261 0 -0.748965)
(0 -1 0)
(-0.822491 0 -0.568779)
(0 1 0)
(-0.822491 0 -0.568779)
(0 -1 0)
(-0.935509 0 -0.353304)
(0 -1 0)
(-0.935509 0 -0.353304)
(0 1 0)
(-0.992631 0 -0.121174)
(0 -1 0)
(-0.992631 0 -0.121174)
(0 1 0)
(-0.992631 0 0.121174)
(0 1 0)
(-0.992631 0 0.121174)
(0 -1 0)
(-0.935509 0 0.353304)
(0 1 0)
(-0.935509 0 0.353304)
(0 -1 0)
(-0.822491 0 0.568779)
(0 1 0)
(-0.822491 0 0.568779)
(0 -1 0)
(-0.66261 0 0.748965)
(0 1 0)
(-0.66261 0 0.748965)
(0 -1 0)
(-0.466362 0 0.884594)
(0 1 0)
(-0.466362 0 0.884594)
(0 -1 0)
(-0.238634 0 0.971109)
(0 1 0)
(-0.238634 0 0.971109)
(0 -1 0)
(-0 0 1)
(0 1 0)
(0 0 1)
(0 -1 0)
(0.238634 0 0.971109)
(0 1 0)
(0.238634 -0 0.971109)
(0 -1 0)
(0.466362 0 0.884594)
(0 1 0)
(0.466362 -0 0.884594)
(0 -1 0)
(0.66261 0 0.748965)
(0 1 -0)
(0.66261 -0 0.748965)
(0 -1 0)
(0.822491 0 0.568779)
(0 1 0)
(0.822491 -0 0.568779)
(0 -1 0)
(0.935509 0 0.353304)
(0 1 0)
(0.992631 0 0.121174)
(0 1 0)
(0.935509 -0 0.353304)
(0 -1 -0)
(0.992631 0 0.121174)
(0 -1 -0)
)

// normal volume types

100
(
0
0
0
0
0
0
0
0
0
0
0
0
0
0
0
0
0
0
0
0
0
0
0
0
0
0
0
0
0
0
0
0
0
0
0
0
0
0
0
0
0
0
0
0
0
0
0
0
0
0
0
0
0
0
0
0
0
0
0
0
0
0
0
0
0
0
0
0
0
0
0
0
0
0
0
0
0
0
0
0
0
0
0
0
0
0
0
0
0
0
0
0
0
0
0
0
0
0
0
0
)

// normalDirections

52
(
2(1 -1)
2(1 -1)
2(1 -1)
2(1 -1)
2(1 -1)
2(1 -1)
2(1 -1)
2(1 -1)
2(1 -1)
2(1 -1)
2(1 -1)
2(1 -1)
2(1 -1)
2(1 -1)
2(1 -1)
2(1 -1)
2(1 -1)
2(1 -1)
2(1 -1)
2(1 -1)
2(1 -1)
2(1 -1)
2(1 -1)
2(1 -1)
2(1 -1)
2(1 -1)
2(1 -1)
2(1 -1)
2(1 -1)
2(1 -1)
2(1 -1)
2(1 -1)
2(1 -1)
2(1 -1)
2(1 -1)
2(1 -1)
2(1 -1)
2(1 -1)
2(1 -1)
2(1 -1)
2(1 -1)
2(1 -1)
2(1 -1)
2(1 -1)
2(1 -1)
2(1 -1)
2(1 -1)
2(1 -1)
2(1 -1)
2(1 -1)
2(1 -1)
2(1 -1)
)

// edgeNormals

52
(
2(0 1)
2(2 3)
2(4 5)
2(6 7)
2(8 5)
2(9 7)
2(10 11)
2(12 13)
2(14 11)
2(15 13)
2(16 17)
2(18 19)
2(20 21)
2(22 23)
2(24 25)
2(26 27)
2(28 29)
2(30 31)
2(32 33)
2(34 35)
2(36 37)
2(38 39)
2(40 41)
2(42 43)
2(44 45)
2(46 47)
2(48 49)
2(50 51)
2(52 53)
2(54 55)
2(56 57)
2(58 59)
2(60 61)
2(62 63)
2(64 65)
2(66 67)
2(68 69)
2(70 71)
2(72 73)
2(74 75)
2(76 77)
2(78 79)
2(80 81)
2(82 83)
2(84 85)
2(86 87)
2(88 89)
2(90 91)
2(92 93)
2(94 95)
2(96 97)
2(98 99)
)

// featurePointNormals
0()
// featurePointEdges
0()
// regionEdges
0()


// ************************************************************************* //
