/*--------------------------------*- C++ -*----------------------------------*\
| =========                 |                                                 |
| \\      /  F ield         | OpenFOAM: The Open Source CFD Toolbox           |
|  \\    /   O peration     | Version:  v2306                                 |
|   \\  /    A nd           | Website:  www.openfoam.com                      |
|    \\/     M anipulation  |                                                 |
\*---------------------------------------------------------------------------*/
FoamFile
{
    version     2.0;
    format      ascii;
    class       volScalarField;
    object      p;
}
// * * * * * * * * * * * * * * * * * * * * * * * * * * * * * * * * * * * * * //

dimensions      [0 2 -2 0 0 0 0];//[0 2 -2 0 0 0 0];

internalField   uniform 0;

boundaryField
{    

    auto0
    {
        type            fixedValue;
        value       	uniform 0;
        //type		zeroGradient;
    }

    auto1
    {
        type            zeroGradient;
    }

    auto2
    {
        type            zeroGradient;
    }

    auto3
    {
        type        	zeroGradient;
    }

    auto4
    {
        type            zeroGradient;
    }

    auto5
    {
        type            zeroGradient;
    }

    auto6
    {
        type            zeroGradient;
    }
}    
/*
    bottom
    {
        //type            fixedFluxPressure;
        //value           uniform 0;
        //type            zeroGradient;
        //type            fixedFluxPressure;
        //value           uniform 0;
        type            zeroGradient;         
    }

    top
    {
        //type            fixedFluxPressure;
        //value           uniform 0;
        //type            zeroGradient;
//        type            totalPressure;
        //p0              uniform 0;
        type            fixedValue;
        value           uniform 0;        
    }

    left
    {
        type            zeroGradient;
    }

    right
    {
        type            zeroGradient;
    }

    front
    {
        type            zeroGradient;
    }

    back
    {
        type            zeroGradient;
    }

    //OneCylinderAtCenter
    Cylinder
    {
        type            zeroGradient;
    }
*/                
//}

// ************************************************************************* //
