/*--------------------------------*- C++ -*----------------------------------*\
| =========                 |                                                 |
| \\      /  F ield         | OpenFOAM: The Open Source CFD Toolbox           |
|  \\    /   O peration     | Version:  v2306                                 |
|   \\  /    A nd           | Website:  www.openfoam.com                      |
|    \\/     M anipulation  |                                                 |
\*---------------------------------------------------------------------------*/
FoamFile
{
    version     2.0;
    format      ascii;
    class       dictionary;
    object      blockMeshDict;
}
// * * * * * * * * * * * * * * * * * * * * * * * * * * * * * * * * * * * * * //

scale   1; 

vertices
(    


(-0.03175 0 -0.03175) // 0
(0.03175 0 -0.03175) // 1
(0.03175 0.1 -0.03175) // 2
(-0.03175 0.1 -0.03175) //3
(-0.03175 0 0.03175) //4
(0.03175 0 0.03175) //5
(0.03175 0.1 0.03175) //6
(-0.03175 0.1 0.03175) //7


   
);

blocks
(

    hex (0 1 2 3 4 5 6 7) (48 75 48) simpleGrading (1 1 1)
/* hex (0 1 2 3 4 5 6 7) (96 150 96) 
     simpleGrading 
     (
     (
      (0.5 0.5 10)
      (0.5 0.5 0.1)
      //(0.5 0.5 0.1)
      //(0.5 0.5 1)
     ) 
     (
     (0.5 0.5 10)
     (0.5 0.5 0.1)
     ) 
     (
      (0.5 0.5 10)
      (0.5 0.5 0.1)
      //(0.5 0.5 0.1)
      //(0.5 0.5 1)
     ) 
     ) */

);

edges
(
);

boundary
(
    top
    {
        type patch;
        faces
        (
            (3 7 6 2)
        );
    }
    bottom
    {
        type patch;
        faces
        (
            (1 5 4 0)
        );
    }
    left
    {
        type wall;
        faces
        (
            (0 4 7 3)
        );
    }
    right
    {
        type wall;
        faces
        (
            (2 6 5 1)
        );
    }
    front
    {
        type wall;
        faces
        (
            (4 5 6 7)
        );
    }
    back
    {
        type wall;
        faces
        (
            (0 3 2 1)
        );
    }
);

mergePatchPairs
(
);


// ************************************************************************* //
