/*--------------------------------*- C++ -*----------------------------------*\
| =========                 |                                                 |
| \\      /  F ield         | OpenFOAM: The Open Source CFD Toolbox           |
|  \\    /   O peration     | Version:  v2306                                 |
|   \\  /    A nd           | Website:  www.openfoam.com                      |
|    \\/     M anipulation  |                                                 |
\*---------------------------------------------------------------------------*/
FoamFile
{
    version     2.0;
    format      ascii;
    class       dictionary;
    object      blockMeshDict;
}
// * * * * * * * * * * * * * * * * * * * * * * * * * * * * * * * * * * * * * //

scale   0.001;

vertices
(
    (0 0 0) // 0
    (63.5 0 0)
    (63.5 1000 0)
    (0 1000 0)
    (0 0 63.5) // 4
    (63.5 0 63.5)
    (63.5 1000 63.5)
    (0 1000 63.5)
);

blocks
(
    hex (0 1 2 3 4 5 6 7) (50 788 50) simpleGrading (1 1 1)
);

edges
(
);

boundary
(
    walls
    {
        type wall;
        faces
        (
            (1 2 6 5)
            (1 0 3 2)
            (0 4 7 3)
            (4 5 6 7)
        );
    }
    inlet
    {
        type patch;
        faces
        (
            (0 1 5 4)
        );
    }
    outlet
    {
        type patch;
        faces
        (
            (3 7 6 2)
        );
    }
);

mergePatchPairs
(
);


// ************************************************************************* //
